Mason's Sims/PTI/PSSE35/EXAMPLE/sample_zils_nb_sec.raw
@!IC,SBASE,REV,XFRRAT,NXFRAT,BASFRQ
0,  100.00, 35,     0,     1, 60.00     / PSS(R)E-35.3    THU, APR 21 2022  21:34
PSS(R)E SAMPLE CASE - ALL RECORD GROUPS WITH SEQ DATA
CONTAINS NODE BREAKER AND SUBSTN SECTIONS, CONTAINS ZILS
GENERAL, THRSHZ=0.0001, PQBRAK=0.7, BLOWUP=5.0, MaxIsolLvls=4, CAMaxReptSln=20, ChkDupCntLbl=0
GAUSS, ITMX=100, ACCP=1.6, ACCQ=1.6, ACCM=1.0, TOL=0.0001
NEWTON, ITMXN=100, ACCN=1.0, TOLN=0.1, VCTOLQ=0.1, VCTOLV=0.00001, DVLIM=0.99, NDVFCT=0.99
ADJUST, ADJTHR=0.005, ACCTAP=1.0, TAPLIM=0.05, SWVBND=100.0, MXTPSS=99, MXSWIM=10
TYSL, ITMXTY=20, ACCTY=1.0, TOLTY=0.00001
SOLVER, FDNS, ACTAPS=0, AREAIN=0, PHSHFT=0, DCTAPS=1, SWSHNT=1, FLATST=0, VARLIM=99, NONDIV=0
RATING, 1, "CRCUS1", "Circus-Fibrous or threadlike    "
RATING, 2, "CRSTR2", "Cirrostrarus-Milky, translucent "
RATING, 3, "CRCUM3", "Cirrocumulus-small, white flakes"
RATING, 4, "ALTCU4", "Altocumulus-bundles or rollers  "
RATING, 5, "ALTST5", "Altostratus-dense, gray layer   "
RATING, 6, "STRTO6", "Stratocumulus-plaices or rollers"
RATING, 7, "STRTS7", "Stratus-Evenly grey, low layer  "
RATING, 8, "CMULS8", "Cumulus-Heap with flat basis    "
RATING, 9, "CMULO9", "Cumulonimbus-thunder, up-rises  "
RATING,10, "NIBS10", "Nimbostratus-rain,grey, dark    "
RATING,11, "CPLL11", "capillatus-haired, frayed       "
RATING,12, "NBUL12", "nebulosus-fog, veil-like        "
0 / END OF SYSTEM-WIDE DATA, BEGIN BUS DATA
@!   I,'NAME        ', BASKV, IDE,AREA,ZONE,OWNER, VM,        VA,    NVHI,   NVLO,   EVHI,   EVLO
   101,'NUC-A       ',  21.6000,2,   1,   1,   1,1.01000, -20.5047,1.10000,0.90000,1.10000,0.90000
   102,'NUC-B       ',  21.6000,2,   1,   1,   1,1.01000, -20.8585,1.10000,0.90000,1.10000,0.90000
   151,'NUCPLNT     ', 500.0000,1,   1,   1,   1,0.99937, -23.6515,1.10000,0.90000,1.10000,0.90000
   152,'MID500      ', 500.0000,1,   1,   2,   1,1.04868, -31.0460,1.10000,0.90000,1.10000,0.90000
   153,'MID230      ', 230.0000,1,   1,   3,   1,1.09270, -32.1743,1.10000,0.90000,1.10000,0.90000
   154,'DOWNTN      ', 230.0000,1,   1,   3,   1,0.99022, -38.5161,1.10000,0.90000,1.10000,0.90000
   155,'FACTS TE    ', 230.0000,1,   1,   4,   1,1.01559, -29.6357,1.10000,0.90000,1.10000,0.90000
   201,'HYDRO       ', 500.0000,1,   2,   7,   2,0.99937, -23.6515,1.10000,0.90000,1.10000,0.90000
   202,'EAST500     ', 500.0000,1,   2,   2,   2,1.01892, -32.5099,1.10000,0.90000,1.10000,0.90000
   203,'EAST230     ', 230.0000,1,   2,   8,   2,0.98838, -36.1543,1.10000,0.90000,1.10000,0.90000
   204,'SUB500      ', 500.0000,1,   2,   8,   2,1.03082, -36.5973,1.10000,0.90000,1.10000,0.90000
   205,'SUB230      ', 230.0000,1,   2,   8,   2,1.00000, -39.0310,1.10000,0.90000,1.10000,0.90000
   206,'URBGEN      ',  18.0000,2,   2,   8,   2,1.00000, -36.5761,1.10000,0.90000,1.10000,0.90000
   207,'DUPONT      ', 500.0000,1,   2,   7,   2,1.01817, -30.2793,1.10000,0.90000,1.10000,0.90000
   208,'URBANEAST208', 230.0000,4,   2,   8,   2,1.00000, -31.5246,1.10000,0.90000,1.10000,0.90000
   209,'URBANEAST209', 230.0000,4,   2,   8,   2,1.00000, -31.5246,1.10000,0.90000,1.10000,0.90000
   211,'HYDRO_G     ',  20.0000,2,   2,   7,   2,1.00000, -19.0293,1.10000,0.90000,1.10000,0.90000
   212,'INVERT1     ', 230.0000,1,   2,   7,   2,1.02695, -37.4074,1.10000,0.90000,1.10000,0.90000
   213,'INVERT2     ', 230.0000,1,   2,   7,   2,1.10677, -40.6731,1.10000,0.90000,1.10000,0.90000
   214,'LOADER      ', 230.0000,1,   2,   7,   2,1.07726, -42.1029,1.10000,0.90000,1.10000,0.90000
   215,'URBANEAST215',  18.0000,1,   2,   8,   2,0.91817, -38.9652,1.10000,0.90000,1.10000,0.90000
   216,'URBANEAST216', 230.0000,1,   2,   8,   2,0.99637, -39.0079,1.10000,0.90000,1.10000,0.90000
   217,'URBANEAST217', 230.0000,1,   2,   8,   2,0.99733, -39.0140,1.10000,0.90000,1.10000,0.90000
   218,'URBANEAST218', 230.0000,1,   2,   8,   2,0.99769, -39.0162,1.10000,0.90000,1.10000,0.90000
   301,'NORTH       ', 765.0000,3,   3,   5,   3,1.00000,   0.0000,1.10000,0.90000,1.10000,0.90000
   401,'COGEN-1     ', 500.0000,3,   4,   9,   4,1.00000,   0.0000,1.10000,0.90000,1.10000,0.90000
   402,'COGEN-2     ', 500.0000,1,   6,   9,   4,1.00000,   0.0000,1.10000,0.90000,1.10000,0.90000
  3001,'MINE        ', 230.0000,1,   5,   6,   5,0.96348, -12.2919,1.10000,0.90000,1.10000,0.90000
  3002,'E. MINE     ', 500.0000,1,   5,   6,   5,0.97661, -11.0007,1.10000,0.90000,1.10000,0.90000
  3003,'S. MINE     ', 230.0000,1,   5,   6,   5,0.96495, -11.8879,1.10000,0.90000,1.10000,0.90000
  3004,'WEST        ', 500.0000,1,   5,   6,   5,1.05115, -27.1004,1.10000,0.90000,1.10000,0.90000
  3005,'WEST        ', 230.0000,1,   5,   2,   5,0.91996, -22.3457,1.10000,0.90000,1.10000,0.90000
  3006,'UPTOWN      ', 230.0000,1,   5,   4,   5,1.09270, -32.1743,1.10000,0.90000,1.10000,0.90000
  3007,'RURAL       ', 230.0000,1,   5,   4,   5,0.93522, -28.0400,1.10000,0.90000,1.10000,0.90000
  3008,'CATDOG      ', 230.0000,1,   5,   4,   5,0.98091, -30.3802,1.10000,0.90000,1.10000,0.90000
  3009,'URBNWEST3009', 230.0000,1,   5,   4,   5,0.98138, -30.4001,1.10000,0.90000,1.10000,0.90000
  3010,'INDMOTOR1   ',  21.6000,1,   5,   4,   5,0.95553,  -3.6959,1.10000,0.90000,1.10000,0.90000
  3011,'MINE_G      ',  19.4000,3,   5,   6,   5,1.00000,   0.0000,1.10000,0.90000,1.10000,0.90000
  3012,'URBNWEST3012', 230.0000,4,   5,   4,   5,0.99048,   0.0000,1.10000,0.90000,1.10000,0.90000
  3018,'CATDOG_G    ',  13.8000,2,   5,   4,   5,0.99000, -26.5937,1.10000,0.90000,1.10000,0.90000
  3021,'WDUM        ',  18.0000,1,   3,   5,   3,1.00000, -27.5653,1.10000,0.90000,1.10000,0.90000
  3022,'EDUM        ',  18.0000,1,   3,   5,   3,1.00000, -26.8789,1.10000,0.90000,1.10000,0.90000
  9154,'INDGEN1     ',   4.1600,1,   1,   3,   1,0.98382, -37.8309,1.10000,0.90000,1.10000,0.90000
  9204,'INDMOTOR2   ',   0.5750,1,   2,   8,   2,0.98138, -40.2844,1.10000,0.90000,1.10000,0.90000
 70202,'EAST-MOV    ', 500.0000,1,   2,   2,   2,1.01541, -32.6930,1.10000,0.90000,1.10000,0.90000
 80102,'NUC-B-ZIL   ',  21.6000,1,   1,   1,   1,1.01000, -20.8585,1.10000,0.90000,1.10000,0.90000
 80151,'NUCPLNT-ZIL ', 500.0000,1,   1,   1,   1,0.99937, -23.6515,1.10000,0.90000,1.10000,0.90000
 80203,'EAST230-ZIL ', 230.0000,1,   2,   8,   2,0.98838, -36.1543,1.10000,0.90000,1.10000,0.90000
 80212,'INVERT1-ZIL ', 230.0000,1,   2,   7,   2,1.02695, -37.4074,1.10000,0.90000,1.10000,0.90000
 80301,'NORTH-ZIL   ', 765.0000,1,   3,   5,   3,1.00000,   0.0000,1.10000,0.90000,1.10000,0.90000
 80402,'COGEN-2-ZIL ', 500.0000,3,   6,   9,   4,1.00000,   0.0000,1.10000,0.90000,1.10000,0.90000
 93002,'INDGEN2     ',   0.6900,1,   5,   6,   5,0.93762,  -4.6843,1.10000,0.90000,1.10000,0.90000
703003,'S. MINE-MOV ', 230.0000,1,   5,   6,   5,0.95347, -15.5651,1.10000,0.90000,1.10000,0.90000
703005,'WEST-2-MOV  ', 230.0000,1,   5,   2,   5,0.91905, -23.8471,1.10000,0.90000,1.10000,0.90000
803002,'E. MINE-ZIL ', 500.0000,1,   5,   6,   5,0.97661, -11.0007,1.10000,0.90000,1.10000,0.90000
803008,'CATDOG-ZIL  ', 230.0000,1,   5,   4,   5,0.98091, -30.3802,1.10000,0.90000,1.10000,0.90000
803010,'INDMOTOR1-ZI',  21.6000,1,   5,   4,   5,0.95553,  -3.6959,1.10000,0.90000,1.10000,0.90000
803018,'CATDOG_G_ZIL',  13.8000,2,   5,   4,   5,0.99000, -26.5937,1.10000,0.90000,1.10000,0.90000
803022,'EDUM-ZIL10  ',  18.0000,1,   3,   5,   3,1.00000, -26.8789,1.10000,0.90000,1.10000,0.90000
809154,'INDGEN1-ZIL ',   4.1600,1,   1,   3,   1,0.98382, -37.8309,1.10000,0.90000,1.10000,0.90000
0 / END OF BUS DATA, BEGIN LOAD DATA
@!   I,'ID',STAT,AREA,ZONE,      PL,        QL,        IP,        IQ,        YP,        YQ, OWNER,SCALE,INTRPT,  DGENP,     DGENQ,DGENF,'  LOAD TYPE '
   152,'1 ',   1,   1,   1,  1200.000,   360.000,   868.340,   360.502,   837.794,  -351.338,   1,    1,  0,     0.000,     0.000,    0,'            '
   153,'1 ',   1,   1,   1,   300.000,   150.000,     0.000,     0.000,     0.000,     0.000,   1,    1,  0,   100.000,    50.000,    1,'            '
   154,'1 ',   1,   1,   1,   400.000,   200.000,     0.000,     0.000,     0.000,     0.000,   1,    1,  0,    30.000,    15.000,    1,'            '
   154,'3 ',   1,   1,   1,   250.000,   100.000,     0.000,     0.000,     0.000,     0.000,   1,    1,  0,     7.500,     2.750,    1,'            '
   154,'MO',   1,   1,   1,   100.000,    80.000,     0.000,     0.000,     0.000,     0.000,   1,    1,  0,     0.000,     0.000,    0,'            '
   154,'2 ',   1,   1,   1,   250.000,   200.000,     0.000,     0.000,     0.000,     0.000,   1,    1,  0,    20.000,     8.000,    1,'            '
   201,'SC',   1,   2,   7,     0.000,     0.000,     0.000,     0.000,     0.000,     0.000,   2,    1,  0,     0.000,     0.000,    0,'            '
   203,'1 ',   1,   2,   2,   500.000,   250.000,     0.000,     0.000,     0.000,     0.000,   2,    1,  0,     0.000,     0.000,    0,'            '
   205,'1 ',   1,   2,   2,  1800.000,   600.000,     0.000,     0.000,     0.000,     0.000,   2,    1,  0,    75.860,    46.786,    0,'            '
   205,'B ',   1,   2,   2,    90.000,     5.000,   110.000,    25.000,    20.000,    10.000,   2,    1,  0,    65.123,    20.456,    1,'            '
   205,'C ',   1,   2,   2,    60.000,    15.000,    45.000,     5.000,    35.000,    30.000,   2,    1,  0,    37.000,    13.000,    1,'            '
   214,'1 ',   1,   2,   2,   500.000,    75.000,     0.000,     0.000,     0.000,     0.000,   2,    1,  0,     0.000,     0.000,    0,'            '
   215,'U1',   1,   2,   4,     0.000,   140.000,     0.000,     0.000,     0.000,     0.000,   2,    1,  0,     0.000,     0.000,    0,'            '
   216,'U1',   1,   2,   4,     0.000,    12.000,     0.000,     0.000,     0.000,     0.000,   2,    1,  0,     0.000,     0.000,    0,'            '
   217,'U1',   1,   2,   4,     0.000,    10.000,     0.000,     0.000,     0.000,     0.000,   2,    1,  0,     0.000,     0.000,    0,'            '
   218,'U1',   1,   2,   4,     0.000,     9.000,     0.000,     0.000,     0.000,     0.000,   2,    1,  0,     0.000,     0.000,    0,'            '
  3005,'1 ',   1,   5,   5,   100.000,    50.000,     0.000,     0.000,     0.000,     0.000,   5,    1,  0,     0.000,     0.000,    0,'            '
  3007,'1 ',   1,   5,   5,   200.000,    75.000,     0.000,     0.000,     0.000,     0.000,   5,    1,  0,     0.000,     0.000,    0,'            '
  3008,'1 ',   1,   5,   5,   200.000,    75.000,     0.000,     0.000,     0.000,     0.000,   5,    1,  0,     0.000,     0.000,    0,'            '
  3009,'1 ',   1,   5,   4,     1.100,     0.900,     0.000,     0.000,     0.000,     0.000,   5,    1,  0,     0.000,     0.000,    0,'            '
  3010,'1 ',   1,   5,   4,    12.000,     5.000,     0.000,     0.000,     0.000,     0.000,   5,    1,  0,     0.000,     0.000,    0,'            '
0 / END OF LOAD DATA, BEGIN FIXED SHUNT DATA
@!   I,'ID',STATUS,  GL,        BL
   151,'F1',1,     5.000,  -400.000
   151,'F2',1,     3.000,  -400.000
   151,'F3',1,     3.120,   200.000
   152,'1 ',1,     1.630,    50.000
   154,'1 ',1,     2.450,   200.000
   201,'1 ',1,     3.670,  -500.000
   203,'1 ',1,    -5.000,    30.000
   203,'2 ',1,     5.000,    20.000
   205,'1 ',1,     2.780,   300.000
   213,'1 ',1,     5.140,   400.000
  3021,'1 ',1,     0.000,  1320.000
  3022,'1 ',1,     0.000,  1080.000
 80212,'1 ',1,     5.130,   400.000
0 / END OF FIXED SHUNT DATA, BEGIN GENERATOR DATA
@!   I,'ID',      PG,        QG,        QT,        QB,     VS,    IREG,NREG,     MBASE,     ZR,         ZX,         RT,         XT,     GTAP,STAT, RMPCT,      PT,        PB,BASLOD,O1,    F1,  O2,    F2,  O3,    F3,  O4,    F4,WMOD, WPF
   101,'1 ',   750.000,   163.263,   400.000,  -100.000,1.01000,   101,   0,   900.000, 1.00000E-2, 3.00000E-1, 0.00000E+0, 0.00000E+0,1.00000,1,  100.0,   800.000,    50.000, 0,   1,0.1289,   2,0.2524,   3,0.1031,   4,0.5156
   102,'1 ',   650.000,   149.790,   410.000,  -110.000,1.01000,   102,   0,   950.000, 1.05000E-2, 3.20000E-1, 0.00000E+0, 0.00000E+0,1.00000,1,  100.0,   700.000,    33.000, 0,   1,0.3647,   2,0.1838,   3,0.0751,   4,0.3764
   206,'1 ',   800.000,   283.913,   500.000,  -400.000,1.00000,   206,   0,  1000.000, 1.06000E-2, 2.51000E-1, 0.00000E+0, 0.00000E+0,1.00000,1,  100.0,   850.000,    50.000, 0,   1,0.1034,   2,0.4006,   3,0.0825,   4,0.4135
   211,'1 ',   600.000,    17.263,   510.000,  -100.000,1.00000,   211,   0,   725.000, 1.08000E-2, 2.62000E-1, 0.00000E+0, 0.00000E+0,1.00000,1,  100.0,   616.000,    30.000, 0,   1,0.1423,   2,0.2210,   3,0.1842,   4,0.4525
   301,'1 ',   996.884,   299.541,   700.000,  -650.000,1.00000,   301,   0,  1067.000, 1.09000E-2, 2.30000E-1, 1.40000E-2, 1.26000E-1,1.02500,1,   98.0,  1010.000,   320.000, 0,   1,0.1118,   2,0.2184,   3,0.0893,   4,0.5805
   301,'2 ',   996.884,   299.541,   710.000,  -600.000,1.00000,   301,   0,  1070.000, 1.10000E-2, 2.40000E-1, 1.10000E-2, 1.27000E-1,1.02600,1,   98.0,  1011.000,   321.000, 0,   1,0.1173,   2,0.3200,   3,0.0936,   4,0.4691
   301,'3 ',   996.884,   299.541,   720.000,  -600.000,1.00000,   301,   0,  1075.000, 8.00000E-3, 2.50000E-1, 1.20000E-2, 1.28000E-1,1.02700,1,   98.0,  1012.000,   322.000, 0,   1,0.1260,   2,0.2268,   3,0.1827,   4,0.4644
   401,'1 ',   321.000,   142.325,   600.000,  -100.000,1.00000,   401,   0,   600.000, 1.23000E-2, 2.22300E-1, 0.00000E+0, 0.00000E+0,1.00000,1,   90.0,   350.000,    25.000, 0,   1,0.1625,   2,0.2423,   3,0.0990,   4,0.4962
  3011,'1 ',  1168.545,   265.561,   620.000,  -120.000,1.00000,  3011,   0,  1050.000, 7.60000E-3, 3.54300E-1, 0.00000E+0, 0.00000E+0,1.00000,1,   92.0,  1400.000,   100.000, 0,   1,0.1452,   2,0.1926,   3,0.2677,   4,0.3945
  3018,'1 ',   400.000,    34.534,   300.000,  -150.000,0.99000,  3018,   0,   530.000, 8.70000E-2, 3.56300E-1, 0.00000E+0, 0.00000E+0,1.00000,1,   92.5,   500.000,    50.000, 0,   1,0.1043,   2,0.2037,   3,0.2749,   4,0.4171
 80402,'1 ',   321.000,   142.325,   610.000,  -110.000,1.00000, 80402,   0,   610.000, 4.50000E-3, 2.43200E-1, 0.00000E+0, 0.00000E+0,1.00000,1,   91.0,   351.000,    26.000, 0,   1,0.1588,   2,0.2117,   3,0.1959,   4,0.4335
803018,'2 ',   100.000,    34.534,    75.000,   -75.000,0.99000,  3018,   0,   120.000, 2.40000E-2, 3.55300E-1, 0.00000E+0, 0.00000E+0,1.00000,1,   92.5,   110.000,    20.000, 0,   1,0.3003,   2,0.1358,   3,0.2857,   4,0.2782
0 / END OF GENERATOR DATA, BEGIN BRANCH DATA
@!   I,     J,'CKT',      R,           X,       B,                   'N A M E'                 ,  RATE1,  RATE2,  RATE3,  RATE4,  RATE5,  RATE6,  RATE7,  RATE8,  RATE9, RATE10, RATE11, RATE12,   GI,      BI,      GJ,      BJ,STAT,MET, LEN,  O1,  F1,    O2,  F2,    O3,  F3,    O4,  F4
   102, 80102,'Z5', 0.00000E+00, 1.00000E-04,0.00148,'ZIL_Z5                                  ',1200.00,1202.12,1203.13,1204.14,1205.15,1206.16,1207.17,1208.18,1209.19,1210.20,1211.21,1212.22, 0.00024, 0.00000, 0.00024, 0.00000,1,1,  0.00,   1,1.0000
   151,   152,'1 ', 2.60000E-03, 4.60000E-02,3.50000,'BRANCH_FROM__151_TO__152___CIRCUIT_ID__1',1200.00,1202.12,1203.13,1204.14,1205.15,1206.16,1207.17,1208.18,1209.19,1210.20,1211.21,1212.22, 0.01000,-0.25000, 0.01100,-0.15000,1,2,150.00,   1,0.2000,   2,0.3000,   3,0.4000,   4,0.1000
   151,   152,'2 ', 2.61000E-03, 4.61000E-02,3.51000,'BRANCH_FROM__151_TO__152___CIRCUIT_ID__2',1205.00,1207.12,1208.13,1209.14,1210.15,1211.16,1212.17,1213.18,1214.19,1215.20,1216.21,1217.22, 0.01300,-0.25100, 0.01200,-0.02000,1,2,149.00,   5,0.2315,   1,0.3056,   2,0.3704,   3,0.0926
   151, 80151,'Z3', 0.00000E+00, 1.00000E-04,0.00150,'ZIL-Z3                                  ',1208.00,1210.12,1211.13,1212.14,1213.15,1214.16,1215.17,1216.18,1217.19,1218.20,1219.21,1220.22, 0.00262, 0.00000, 0.00262, 0.00000,1,1,  0.00,   1,1.0000
   152,  3004,'1 ', 3.00000E-03, 3.00000E-02,2.50000,'BRANCH_FROM__152_TO_3004___CIRCUIT_ID__1', 350.00, 352.12, 353.13, 354.14, 355.15, 356.16, 357.17, 358.18, 359.19, 360.20, 361.21, 362.22, 0.00000, 0.00000, 0.00000, 0.00000,1,2,201.00,   5,0.2379,   1,0.3033,   2,0.3667,   3,0.0922
   152, 70202,'1 ', 8.00000E-04, 1.00000E-02,0.95000,'BRANCH_FROM__152_TO__70202_CIRCUIT_ID__1',1207.00,1209.12,1210.13,1211.14,1212.15,1213.16,1214.17,1215.18,1216.19,1217.20,1218.21,1219.22, 0.00000, 0.00000, 0.00000, 0.00000,1,1,200.00,   1,0.3939,   2,0.2273,   3,0.3030,   4,0.0758
   153,   154,'2 ', 6.00000E-03, 5.40000E-02,0.15000,'BRANCH_FROM__153_TO__154___CIRCUIT_ID__2', 350.00, 352.12, 353.13, 354.14, 355.15, 356.16, 357.17, 358.18, 359.19, 360.20, 361.21, 362.22, 0.00000, 0.00000, 0.00000, 0.00000,1,2, 80.00,   2,0.2727,   3,0.2727,   4,0.3636,   5,0.0909
   154,   155,'1 ', 5.00000E-03, 4.50000E-02,0.10000,'BRANCH_FROM__154_TO__155___CIRCUIT_ID__1', 400.00, 402.12, 403.13, 404.14, 405.15, 406.16, 407.17, 408.18, 409.19, 410.20, 411.21, 412.22, 0.00000, 0.00000, 0.00000, 0.00000,1,1, 81.00,   5,0.1914,   1,0.2535,   2,0.3065,   3,0.2486
   154,   205,'1 ', 3.30000E-04, 3.33000E-03,0.09000,'BRANCH_FROM__154_TO__205___CIRCUIT_ID__1', 600.00, 602.12, 603.13, 604.14, 605.15, 606.16, 607.17, 608.18, 609.19, 610.20, 611.21, 612.22, 0.00000, 0.00000, 0.00000, 0.00000,1,2,120.00,   1,0.1667,   2,0.2500,   3,0.3333,   4,0.2500
   154,  3008,'1 ', 2.70000E-03, 2.20000E-02,0.30000,'BRANCH_FROM__154_TO_3008___CIRCUIT_ID__1', 800.00, 802.12, 803.13, 804.14, 805.15, 806.16, 807.17, 808.18, 809.19, 810.20, 811.21, 812.22, 0.00000, 0.00000, 0.00000, 0.00000,1,2,119.00,   5,0.1925,   1,0.2550,   2,0.3083,   3,0.2442
   154,   203,'1 ', 4.00000E-03, 4.00000E-02,0.10000,'BRANCH_FROM__154_TO__203___CIRCUIT_ID__1', 400.00, 402.12, 403.13, 404.14, 405.15, 406.16, 407.17, 408.18, 409.19, 410.20, 411.21, 412.22, 0.00041, 0.00000, 0.00041, 0.00000,1,2,100.00,   2,0.2000,   3,0.3000,   4,0.4000,   5,0.1000
   201,   202,'1 ', 2.00000E-03, 2.50000E-02,2.00000,'BRANCH_FROM__201_TO__202___CIRCUIT_ID__1',1200.00,1202.12,1203.13,1204.14,1205.15,1206.16,1207.17,1208.18,1209.19,1210.20,1211.21,1212.22, 0.00000, 0.00000, 0.00000, 0.00000,1,2,300.00,   2,0.1905,   3,0.2857,   4,0.3810,   5,0.1429
   201,   207,'C1', 1.50000E-03, 1.50000E-02,1.25000,'BRANCH_FROM__201_TO__207___CIRCUIT_ID_C1',1200.00,1202.12,1203.13,1204.14,1205.15,1206.16,1207.17,1208.18,1209.19,1210.20,1211.21,1212.22, 0.00000, 0.00000, 0.00000, 0.00000,1,2,250.00,   1,0.2500,   2,0.3750,   3,0.2500,   4,0.1250
   202, 70202,'1 ', 0.00000E+00,-1.00000E-03,0.00000,'BRANCH_FROM__202_TO_70202_CIRCUIT_ID__1 ',1207.00,1209.12,1210.13,1211.14,1212.15,1213.16,1214.17,1215.18,1216.19,1217.20,1218.21,1219.22, 0.00000, 0.00000, 0.00000, 0.00000,1,1,  1.00,   1,0.3939,   2,0.2273,   3,0.3030,   4,0.0758
   203,   205,'1 ', 5.00000E-03, 4.50000E-02,0.08000,'BRANCH_FROM__203_TO__205___CIRCUIT_ID__1', 200.00, 202.12, 203.13, 204.14, 205.15, 206.16, 207.17, 208.18, 209.19, 210.20, 211.21, 212.22, 0.00000, 0.00000, 0.00000, 0.00000,1,1, 70.00,   5,0.1925,   1,0.2550,   2,0.3083,   3,0.2442
   203, 80203,'14', 0.00000E+00, 1.00000E-04,0.00000,'ZIL_14                                  ', 270.00, 272.12, 273.13, 274.14, 275.15, 276.16, 277.17, 278.18, 279.19, 280.20, 281.21, 282.22, 0.00000, 0.00000, 0.00000, 0.00000,1,1,  0.00,   2,1.0000
   204,   207,'C2', 1.50000E-03, 1.50000E-02,1.25000,'BRANCH_FROM__204_TO__207___CIRCUIT_ID_C2',1200.00,1202.12,1203.13,1204.14,1205.15,1206.16,1207.17,1208.18,1209.19,1210.20,1211.21,1212.22, 0.00000, 0.00000, 0.00000, 0.00000,1,2,300.00,   2,0.2000,   3,0.3000,   4,0.4000,   5,0.1000
   205,   214,'2 ', 2.00000E-03, 2.50000E-02,2.00000,'BRANCH_FROM__205_TO__214___CIRCUIT_ID__2',1200.00,1202.12,1203.13,1204.14,1205.15,1206.16,1207.17,1208.18,1209.19,1210.20,1211.21,1212.22, 0.00000, 0.00000, 0.00000, 0.00000,1,2,100.00,   5,0.2100,   1,0.2782,   2,0.3364,   3,0.1755
   205,   216,'3 ', 5.00000E-03, 4.50000E-02,0.08000,'BRANCH_FROM__205_TO__216___CIRCUIT_ID__3', 200.00, 202.12, 203.13, 204.14, 205.15, 206.16, 207.17, 208.18, 209.19, 210.20, 211.21, 212.22, 0.00000, 0.00000, 0.00000, 0.00000,1,2, 81.00,   2,0.1818,   3,0.2727,   4,0.3636,   5,0.1818
   205,   217,'4 ', 5.00000E-03, 4.50000E-02,0.08000,'BRANCH_FROM__205_TO__217___CIRCUIT_ID__4', 200.00, 202.12, 203.13, 204.14, 205.15, 206.16, 207.17, 208.18, 209.19, 210.20, 211.21, 212.22, 0.00000, 0.00000, 0.00000, 0.00000,1,2, 80.00,   1,0.1667,   2,0.2500,   3,0.3333,   4,0.2500
   205,   218,'5 ', 5.00000E-03, 4.50000E-02,0.08000,'BRANCH_FROM__205_TO__218___CIRCUIT_ID__5', 200.00, 202.12, 203.13, 204.14, 205.15, 206.16, 207.17, 208.18, 209.19, 210.20, 211.21, 212.22, 0.00000, 0.00000, 0.00000, 0.00000,1,2, 59.00,   5,0.1650,   1,0.2186,   2,0.2643,   3,0.3521
   205, 80212,'1 ', 0.00000E+00, 1.00000E-02,0.00000,'BRANCH_FROM__205_TO__212___CIRCUIT_ID__1',1250.00,1252.12,1253.13,1254.14,1255.15,1256.16,1257.17,1258.18,1259.19,1260.20,1261.21,1262.22, 0.00000, 0.00000, 0.00000, 0.00000,1,1, 71.00,   1,0.2000,   2,0.3000,   3,0.4000,   4,0.1000
   212, 80212,'11', 0.00000E+00, 1.00000E-04,0.00000,'ZIL_11                                  ', 340.00, 342.12, 343.13, 344.14, 345.15, 346.16, 347.17, 348.18, 349.19, 350.20, 351.21, 352.22, 0.00000, 0.00000, 0.00000, 0.00000,1,1,  0.00,   2,1.0000
   213,   214,'1 ', 0.00000E+00, 1.00000E-02,0.00000,'BRANCH_FROM__213_TO__214___CIRCUIT_ID__1',1250.00,1252.12,1253.13,1254.14,1255.15,1256.16,1257.17,1258.18,1259.19,1260.20,1261.21,1262.22, 0.00000, 0.00000, 0.00000, 0.00000,1,2,  0.50,   2,0.1429,   3,0.2143,   4,0.2857,   5,0.3571
   301, 80301,'Z9', 0.00000E+00, 1.00000E-04,0.00000,'ZIL_Z9                                  ', 360.00, 362.12, 363.13, 364.14, 365.15, 366.16, 367.17, 368.18, 369.19, 370.20, 371.21, 372.22, 0.00000, 0.00000, 0.00000, 0.00000,1,1,  0.00,   3,1.0000
   402, 80402,'12', 0.00000E+00, 1.00000E-04,0.00000,'ZIL_12                                  ', 370.00, 372.12, 373.13, 374.14, 375.15, 376.16, 377.17, 378.18, 379.19, 380.20, 381.21, 382.22, 0.00000, 0.00000, 0.00000, 0.00000,1,1,  0.00,   4,1.0000
  3001,703003,'1 ', 0.00000E+00, 8.00000E-03,0.00000,'BRANCH_FROM_3001_TO_703003_CIRCUIT_ID__1', 380.00, 382.12, 383.13, 384.14, 385.15, 386.16, 387.17, 388.18, 389.19, 390.20, 391.21, 392.22, 0.00000, 0.00000, 0.00000, 0.00000,1,2, 70.00,   1,0.1639,   2,0.2459,   3,0.3279,   4,0.2623
  3002,803002,'Z8', 0.00000E+00, 1.00000E-04,0.00000,'ZIL_Z8                                  ', 390.00, 392.12, 393.13, 394.14, 395.15, 396.16, 397.17, 398.18, 399.19, 400.20, 401.21, 402.22, 0.00000, 0.00000, 0.00000, 0.00000,1,1,  0.00,   5,1.0000
  3003,  3005,'1 ', 6.00000E-03, 5.40000E-02,0.09000,'BRANCH_FROM_3003_TO_3005___CIRCUIT_ID__1', 500.00, 502.12, 503.13, 504.14, 505.15, 506.16, 507.17, 508.18, 509.19, 510.20, 511.21, 512.22, 0.00000, 0.00000, 0.00000, 0.00000,1,2, 90.00,   2,0.2000,   3,0.3000,   4,0.4000,   5,0.1000
  3003,703003,'1 ', 0.00000E+00,-9.00000E-03,0.00000,'BRANCH_FROM_3003_TO_703003_CIRCUIT_ID__1', 510.00, 512.12, 513.13, 514.14, 515.15, 516.16, 517.17, 518.18, 519.19, 520.20, 521.21, 522.22, 0.00000, 0.00000, 0.00000, 0.00000,1,2,  1.00,   5,0.1925,   1,0.2550,   2,0.3083,   3,0.2442
  3003,703005,'2 ', 6.00000E-03, 5.40000E-02,0.09000,'BRANCH_FROM_3003_TO_703005_CIRCUIT_ID__2', 520.00, 522.12, 523.13, 524.14, 525.15, 526.16, 527.17, 528.18, 529.19, 530.20, 531.21, 532.22, 0.00000, 0.00000, 0.00000, 0.00000,1,2, 90.00,   1,0.1333,   2,0.2000,   3,0.2667,   4,0.4000
  3004,803002,'1 ', 6.00000E-03, 5.40000E-02,0.09000,'BRANCH_FROM_3002_TO_3004___CIRCUIT_ID__1', 530.00, 532.12, 533.13, 534.14, 535.15, 536.16, 537.17, 538.18, 539.19, 540.20, 541.21, 542.22, 0.00000, 0.00000, 0.00000, 0.00000,1,1,200.00,   5,0.1925,   1,0.2550,   2,0.3083,   3,0.2442
  3005,  3007,'1 ', 3.00000E-03, 2.50000E-02,0.06000,'BRANCH_FROM_3005_TO_3007___CIRCUIT_ID__1', 550.00, 552.12, 553.13, 554.14, 555.15, 556.16, 557.17, 558.18, 559.19, 560.20, 561.21, 562.22, 0.00000, 0.00000, 0.00000, 0.00000,1,2, 80.00,   2,0.1527,   3,0.2290,   4,0.3053,   5,0.3130
  3005,  3008,'1 ', 6.00000E-03, 5.00000E-02,0.12000,'BRANCH_FROM_3005_TO_3008___CIRCUIT_ID__1', 560.00, 562.12, 563.13, 564.14, 565.15, 566.16, 567.17, 568.18, 569.19, 570.20, 571.21, 572.22, 0.00000, 0.00000, 0.00000, 0.00000,0,2, 60.00,   1,0.1802,   2,0.2703,   3,0.3604,   4,0.1892
  3005,703005,'2 ', 0.00000E+00,-6.50000E-03,0.00000,'BRANCH_FROM_3005_TO_703005_CIRCUIT_ID__2', 570.00, 572.12, 573.13, 574.14, 575.15, 576.16, 577.17, 578.18, 579.19, 580.20, 581.21, 582.22, 0.00000, 0.00000, 0.00000, 0.00000,1,2,  1.00,   1,0.1333,   2,0.2000,   3,0.2667,   4,0.4000
  3005,  3006,'1 ', 3.50000E-03, 3.00000E-02,0.07000,'BRANCH_FROM_3005_TO_3006___CIRCUIT_ID__1', 540.00, 542.12, 543.13, 544.14, 545.15, 546.16, 547.17, 548.18, 549.19, 550.20, 551.21, 552.22, 0.00000, 0.00000, 0.00000, 0.00000,1,2, 70.00,   5,0.1650,   1,0.2186,   2,0.2643,   3,0.3521
  3007,  3008,'1 ', 3.00000E-03, 2.50000E-02,0.06000,'BRANCH_FROM_3007_TO_3008___CIRCUIT_ID__1', 580.00, 582.12, 583.13, 584.14, 585.15, 586.16, 587.17, 588.18, 589.19, 590.20, 591.21, 592.22, 0.00000, 0.00000, 0.00000, 0.00000,1,2, 60.00,   5,0.1858,   1,0.2462,   2,0.4023,   3,0.1657
  3008,  3009,'1 ', 3.00000E-03, 2.50000E-02,0.06000,'BRANCH_FROM_3008_TO_3009___CIRCUIT_ID__1',  25.00,  27.12,  28.13,  29.14,  30.15,  31.16,  32.17,  33.18,  34.19,  35.20,  36.21,  37.22, 0.00000, 0.00000, 0.00000, 0.00000,1,2, 60.00,   1,0.1797,   2,0.2695,   3,0.3594,   4,0.1914
  3008,803008,'13', 0.00000E+00, 1.00000E-04,0.00000,'ZIL_13                                  ', 700.00, 702.12, 703.13, 704.14, 705.15, 706.16, 707.17, 708.18, 709.19, 710.20, 711.21, 712.22, 0.00000, 0.00000, 0.00000, 0.00000,1,1,  0.00,   5,1.0000
  3010,803010,'Z4', 0.00000E+00, 1.00000E-04,0.00013,'ZIL_Z4                                  ', 710.00, 712.12, 713.13, 714.14, 715.15, 716.16, 717.17, 718.18, 719.19, 720.20, 721.21, 722.22,-0.00012, 0.00101, 0.00012, 0.00128,1,1,  0.00,   5,1.0000
  3018,803018,'Z6', 0.00000E+00, 1.00000E-04,0.00000,'ZIL_Z6                                  ', 720.00, 722.12, 723.13, 724.14, 725.15, 726.16, 727.17, 728.18, 729.19, 730.20, 731.21, 732.22, 0.00000, 0.00000, 0.00000, 0.00000,1,1,  0.00,   5,1.0000
  3022,803022,'10', 0.00000E+00, 1.00000E-04,0.00000,'ZIL_10                                  ', 730.00, 732.12, 733.13, 734.14, 735.15, 736.16, 737.17, 738.18, 739.19, 740.20, 741.21, 742.22, 0.00000, 0.00000, 0.00000, 0.00000,1,1,  0.00,   3,1.0000
  9154,809154,'Z7', 0.00000E+00, 1.00000E-04,0.00000,'ZIL_Z7                                  ', 740.00, 742.12, 743.13, 744.14, 745.15, 746.16, 747.17, 748.18, 749.19, 750.20, 751.21, 752.22,-0.00001, 0.00044, 0.00001, 0.00069,1,2,  0.00,   1,1.0000
0 / END OF BRANCH DATA, BEGIN SYSTEM SWITCHING DEVICE DATA
@!   I,     J,'CKT',          X,  RATE1,  RATE2,  RATE3,  RATE4,  RATE5,  RATE6,  RATE7,  RATE8,  RATE9, RATE10, RATE11, RATE12, STAT,NSTAT,  MET,STYPE,'NAME'
   151,   201,'*1', 1.00000E-04,1206.00,1106.00,1006.00,   0.00,   0.00,   0.00,   0.00,   0.00,   0.00,   0.00,   0.00,   0.00,    1,    1,    2,    3,'                                        '
   153,  3006,'@1', 1.00000E-04,   0.00,   0.00,   0.00,   0.00,   0.00,   0.00,   0.00,   0.00,   0.00,   0.00,   0.00,   0.00,    1,    1,    2,    2,'                                        '
0 / END OF SYSTEM SWITCHING DEVICE DATA, BEGIN TRANSFORMER DATA
@!   I,     J,     K,'CKT',CW,CZ,CM,     MAG1,        MAG2,NMETR,               'N A M E',               STAT,O1,  F1,    O2,  F2,    O3,  F3,    O4,  F4,     'VECGRP', ZCOD
@!   R1-2,       X1-2, SBASE1-2,     R2-3,       X2-3, SBASE2-3,     R3-1,       X3-1, SBASE3-1, VMSTAR,   ANSTAR
@!WINDV1, NOMV1,   ANG1, RATE1-1, RATE1-2, RATE1-3, RATE1-4, RATE1-5, RATE1-6, RATE1-7, RATE1-8, RATE1-9,RATE1-10,RATE1-11,RATE1-12,COD1,CONT1,NOD1,  RMA1,   RMI1,   VMA1,   VMI1, NTP1,TAB1, CR1,    CX1,  CNXA1
@!WINDV2, NOMV2,   ANG2, RATE2-1, RATE2-2, RATE2-3, RATE2-4, RATE2-5, RATE2-6, RATE2-7, RATE2-8, RATE2-9,RATE2-10,RATE2-11,RATE2-12,COD2,CONT2,NOD2,  RMA2,   RMI2,   VMA2,   VMI2, NTP2,TAB2, CR2,    CX2,  CNXA2
@!WINDV3, NOMV3,   ANG3, RATE3-1, RATE3-2, RATE3-3, RATE3-4, RATE3-5, RATE3-6, RATE3-7, RATE3-8, RATE3-9,RATE3-10,RATE3-11,RATE3-12,COD3,CONT3,NOD3,  RMA3,   RMI3,   VMA3,   VMI3, NTP3,TAB3, CR3,    CX3,  CNXA3
   101, 80151,     0,'T1', 2, 2, 1, 1.71470E-01,-1.02880E-01,2,'EL DORADO NUCLEAR UNIT A GSU TRANSFORMER',1,   1,0.3200,   2,0.3900,   3,0.1400,   4,0.1500,'Dyn1        '
 1.10000E-03, 9.10000E-02,1200.00
21.6000, 21.600,  0.000, 1200.00, 1202.12, 1203.13, 1204.14, 1205.15, 1206.16, 1207.17, 1208.18, 1209.19, 1210.20, 1211.21, 1212.22, 1,    101,   0,22.6800,20.5200,1.05000,0.95000,  25, 0,0.00021,0.00051, 0.000
500.000, 500.00
 80102,   151,     0,'T2', 2, 1, 2, 4.53750E+05, 2.60000E-03,2,'EL DORADO NUCLEAR UNIT B GSU TRANSFORMER',1,   1,0.2100,   2,0.2500,   3,0.2200,   4,0.3200,'Dyn1        '
 1.20000E-04, 7.60000E-03,1210.00
21.6000, 21.600,  0.000, 1210.00, 1212.12, 1213.13, 1214.14, 1215.15, 1216.16, 1217.17, 1218.18, 1219.19, 1220.20, 1221.21, 1222.22, 1,   -102,   0,22.5720,20.6280,1.04500,0.95500,  27, 0,0.00022,0.00052, 0.000
500.000, 500.00
   152,   153,     0,'T3', 2, 1, 1, 2.10000E-04,-1.20000E-04,2,'MID LTC                                 ',1,   1,0.3500,   2,0.2200,   3,0.2500,   4,0.1800,'YNyn0       '
 1.70000E-04, 7.75000E-03, 800.00
475.000,500.000,  0.000,  800.00,  802.12,  803.13,  804.14,  805.15,  806.16,  807.17,  808.18,  809.19,  810.20,  811.21,  812.22, 1,    154,   0,525.000,475.000,1.00000,0.98000,  10, 0,0.00023,0.00053, 0.000
230.000, 230.00
   152,  3021,     0,'T4', 1, 2, 2, 5.62500E+05, 2.80000E-03,2,'WDUM DC                                 ',1,   1,0.3900,   2,0.3200,   3,0.1500,   4,0.1400,'YNyn0       '
 1.30000E-03, 6.30000E-02,1500.00
1.10000,500.000,  0.000, 1500.00, 1502.12, 1503.13, 1504.14, 1505.15, 1506.16, 1507.17, 1508.18, 1509.19, 1510.20, 1511.21, 1512.22, 4,      0,   0,1.10000,0.90000,1.10000,0.90000,  33, 2,0.00000,0.00000, 0.000
1.00000,  18.00
   152,  3022,     0,'T5', 1, 2, 1, 4.00000E-04,-2.10000E-04,2,'EDUM DC                                 ',1,   1,0.2200,   2,0.2500,   3,0.2100,   4,0.3200,'YNyn0       '
 1.70000E-03, 7.40000E-02,1510.00
1.10000,500.000,  0.000, 1510.00, 1512.12, 1513.13, 1514.14, 1515.15, 1516.16, 1517.17, 1518.18, 1519.19, 1520.20, 1521.21, 1522.22, 4,      0,   0,1.10000,0.90000,1.10000,0.90000,  33, 0,0.00000,0.00000, 0.000
1.00000,  18.00
   154,  9154,     0,'W1', 1, 1, 1, 0.00000E+00, 0.00000E+00,2,'WTG1XMER                                ',1,   1,1.0000,   0,1.0000,   0,1.0000,   0,1.0000,'YNd1        '
 0.00000E+00, 5.83330E-01,  12.00
1.00000,  0.000,  0.000,   12.00,   14.12,   15.13,   16.14,   17.15,   18.16,   19.17,   20.18,   21.19,   22.20,   23.21,   24.22, 0,      0,   0,1.10000,0.90000,1.10000,0.90000,  33, 0,0.00000,0.00000, 0.000
1.00000,   0.00
   201,   211,     0,'T6', 2, 1, 2, 2.62500E+05, 3.00000E-03,2,'HYDRO_G XMER                            ',1,   1,0.1400,   2,0.1500,   3,0.3200,   4,0.3900,'YNd1        '
 2.60000E-04, 1.34300E-02, 700.00
500.000,500.000,  0.000,  700.00,  702.12,  703.13,  704.14,  705.15,  706.16,  707.17,  708.18,  709.19,  710.20,  711.21,  712.22, 0,      0,   0,1.10000,0.90000,1.10000,0.90000,   5, 0,0.00000,0.00000, 0.000
20.0000,  20.00
   203,   202,     0,'T7', 1, 2, 1, 9.50000E-04,-4.60000E-04,1,'EAST PS                                 ',1,   1,0.2754,   2,0.3261,   3,0.2899,   4,0.1087,'YNyn0       '
 2.10000E-03, 5.40000E-02, 750.00
0.99000,230.000,  0.143,  750.00,  752.12,  753.13,  754.14,  755.15,  756.16,  757.17,  758.18,  759.19,  760.20,  761.21,  762.22, 3,      0,   0,12.0000,-11.000,-900.00,-950.00,  33, 1,0.00000,0.00000, 0.000
1.00000, 500.00
   204,   205,     0,'T8', 1, 2, 1, 1.13000E-03,-5.20000E-04,2,'SUB LTC                                 ',1,   1,0.3019,   2,0.4245,   3,0.1321,   4,0.1415,'YNyn0       '
 3.70000E-03, 4.50000E-02, 800.00
1.03667,500.000,  0.000,  800.00,  802.12,  803.13,  804.14,  805.15,  806.16,  807.17,  808.18,  809.19,  810.20,  811.21,  812.22, 1,    205,   0,1.05000,0.95000,1.00000,0.98000,  16, 0,0.00024,0.00054, 0.000
1.00000, 230.00
   204,  9204,     0,'W2', 1, 1, 1, 0.00000E+00, 0.00000E+00,2,'WTG2XMER                                ',1,   2,1.0000,   0,1.0000,   0,1.0000,   0,1.0000,'YNd1        '
 8.80000E-02, 6.61710E-01,   8.75
1.00000,  0.000,  0.000,    8.75,   10.87,   11.88,   12.89,   13.90,   14.91,   15.92,   16.93,   17.94,   18.95,   19.96,   20.97, 0,      0,   0,1.10000,0.90000,1.10000,0.90000,  33, 0,0.00000,0.00000, 0.000
1.00000,   0.00
   205,   206,     0,'T9', 1, 2, 1, 1.13000E-03,-5.20000E-04,2,'URB TX                                  ',1,   1,0.1905,   2,0.4643,   3,0.1667,   4,0.1786,'YNd1        '
 1.60000E-03, 4.80000E-02, 900.00
1.01591,230.000,  0.000,  900.00,  902.12,  903.13,  904.14,  905.15,  906.16,  907.17,  908.18,  909.19,  910.20,  911.21,  912.22, 2,      0,   0,1.05000,0.97500,-175.00,-250.00,  12, 0,0.00000,0.00000, 0.000
1.00000,  18.00
   205,   215,   208,'3 ', 1, 1, 2, 3.42000E+04, 2.28000E-03,2,'THREE WDG WITH COMPLEX IMP COR FACTORS 1',3,   2,0.2540,   2,0.1746,   3,0.3333,   4,0.2381,'YN0yn0y0    ', 1
 7.52998E-04, 5.36670E-02, 150.00, 1.24790E-02, 8.73500E-01,  20.00, 2.00690E-02, 1.34000E+00,  15.00,0.60345, -38.4703
1.00000,230.000,  0.000,  150.00,  152.12,  153.13,  154.14,  155.15,  156.16,  157.17,  158.18,  159.19,  160.20,  161.21,  162.22,-1,    215,   0,1.10000,0.90000,1.10000,0.90000,  33, 5,0.00025,0.00064, 0.000
1.00000, 18.000,  0.000,   20.00,   22.12,   23.13,   24.14,   25.15,   26.16,   27.17,   28.18,   29.19,   30.20,   31.21,   32.22, 0,      0,   0,1.20000,0.90120,1.10000,0.90000,  33, 0,0.00012,0.00046, 0.000
1.00000,230.000,  0.000,   15.00,   17.12,   18.13,   19.14,   20.15,   21.16,   22.17,   23.18,   24.19,   25.20,   26.21,   27.22, 0,      0,   0,1.10000,0.90000,1.10000,0.90000,  33, 6,0.00000,0.00000, 0.000
   209,   217,   218,'4 ', 2, 3, 2, 4.18934E+01, 9.98336E-06,2,'3WNDSTAT4                               ',4,   2,0.4671,   2,0.1250,   3,0.2379,   4,0.1700,'YN0yn0yn0   ', 0
 2.28000E+05, 1.00010E-01,  30.00, 1.90000E+05, 9.00000E-02,  25.00, 2.66000E+05, 7.50000E-02,  35.00,0.99757, -39.0153
230.000,230.000,  0.000,   30.00,   32.12,   33.13,   34.14,   35.15,   36.16,   37.17,   38.18,   39.19,   40.20,   41.21,   42.22,-1,      0,   0,253.000,207.000,1.10000,0.90000,  33, 2,0.00031,0.00784, 0.000
230.000,230.000,  0.000,   25.00,   27.12,   28.13,   29.14,   30.15,   31.16,   32.17,   33.18,   34.19,   35.20,   36.21,   37.22,-1,    217,   0,253.000,207.000,1.10000,0.90000,  33, 2,0.00021,0.00862, 0.000
230.000,230.000,  0.000,   35.00,   37.12,   38.13,   39.14,   40.15,   41.16,   42.17,   43.18,   44.19,   45.20,   46.21,   47.22,-1,      0,   0,253.000,207.000,1.10000,0.90000,  33, 2,0.00024,0.00394, 0.000
  3001,  3002,  3011,'1 ', 1, 1, 1, 1.20000E-03,-4.20000E-03,2,'THREE WDG WITH COMPLEX IMP COR FACTORS 2',1,   1,0.1238,   2,0.2477,   3,0.1548,   5,0.4737,'YN0yn0d1    ', 1
 1.13000E-04, 8.05000E-03,1000.00, 2.50000E-04, 1.74700E-02,1000.00, 3.01000E-04, 2.01000E-02,1000.00,0.97355, -10.1645
0.99884,230.000,  0.000, 1200.00, 1202.12, 1203.13, 1204.14, 1205.15, 1206.16, 1207.17, 1208.18, 1209.19, 1210.20, 1211.21, 1212.22, 1,   3002,   0,1.10020,0.92000,1.16000,0.93000,  33, 3,0.00013,0.00016, 0.000
1.00000,500.000,  0.000, 1250.00, 1252.12, 1253.13, 1254.14, 1255.15, 1256.16, 1257.17, 1258.18, 1259.19, 1260.20, 1261.21, 1262.22, 0,      0,   0,1.10010,0.90000,1.14000,0.91000,  22, 0,0.00012,0.00015, 0.000
1.00000, 19.400,  0.000, 1280.00, 1282.12, 1283.13, 1284.14, 1285.15, 1286.16, 1287.17, 1288.18, 1289.19, 1290.20, 1291.21, 1292.22, 0,      0,   0,1.10000,0.91000,1.10000,0.92000,  11, 4,0.00011,0.00014, 0.000
  3002, 93002,     0,'W3', 1, 1, 1, 0.00000E+00, 0.00000E+00,2,'WTG3XMER                                ',1,   5,1.0000,   0,1.0000,   0,1.0000,   0,1.0000,'YNd1        '
 0.00000E+00, 2.02703E+00,   3.70
1.00000,  0.000,  0.000,    3.70,    5.82,    6.83,    7.84,    8.85,    9.86,   10.87,   11.88,   12.89,   13.90,   14.91,   15.92, 0,      0,   0,1.10000,0.90000,1.10000,0.90000,  33, 0,0.00000,0.00000, 0.000
1.00000,   0.00
  3005,  3004,     0,'10', 1, 1, 2, 2.06250E+05, 3.40000E-03,1,'WEST TX                                 ',1,   1,0.2645,   2,0.4959,   3,0.1157,   4,0.1240,'YNa0        '
 3.50000E-04, 9.64000E-03, 550.00
1.00000,230.000,  0.000,  550.00,  552.12,  553.13,  554.14,  555.15,  556.16,  557.17,  558.18,  559.19,  560.20,  561.21,  562.22, 0,      0,   0,1.10000,0.90000,1.10000,0.90000,   3, 0,0.00000,0.00000, 0.000
1.00000, 500.00
  3008,  3018,     0,'11', 2, 1, 2, 1.96875E+05, 3.50000E-03,2,'CATDOG_XMER                             ',1,   1,0.2051,   2,0.2500,   3,0.4487,   4,0.0962,'YNa0        '
 4.40000E-04, 1.27600E-02, 525.00
230.000,230.000,  0.000,  525.00,  527.12,  528.13,  529.14,  530.15,  531.16,  532.17,  533.18,  534.19,  535.20,  536.21,  537.22, 0,      0,   0,1.10000,0.90000,1.10000,0.90000,  22, 2,0.00000,0.00000, 0.000
13.8000,  13.80
  3008,  3012,803010,'2 ', 2, 1, 1, 2.10000E-04,-1.20000E-04,1,'3WNDSTAT2                               ',2,   5,0.8000,   3,0.0500,   2,0.1000,   1,0.0500,'D1y0y0      ', 0
 5.15000E-03, 5.00000E-01,  20.00, 9.20000E-03, 8.00000E-01,  15.00, 3.75000E-03, 4.16670E-01,  25.00,0.97725, -30.8364
230.000,230.000,  0.000,   20.00,   22.12,   23.13,   24.14,   25.15,   26.16,   27.17,   28.18,   29.19,   30.20,   31.21,   32.22, 0,      0,   0,1.10000,0.90000,1.10000,0.90000,  33, 0,0.00000,0.00000, 0.000
230.000,230.000,  0.000,   15.00,   17.12,   18.13,   19.14,   20.15,   21.16,   22.17,   23.18,   24.19,   25.20,   26.21,   27.22, 0,      0,   0,1.10000,0.90000,1.10000,0.90000,  33, 0,0.00000,0.00000, 0.000
21.6000, 21.600, 30.000,   25.00,   27.12,   28.13,   29.14,   30.15,   31.16,   32.17,   33.18,   34.19,   35.20,   36.21,   37.22, 0,      0,   0,1.10000,0.90000,1.10000,0.90000,  33, 0,0.00000,0.00000, 0.000
0 / END OF TRANSFORMER DATA, BEGIN AREA DATA
@! I,   ISW,    PDES,     PTOL,    'ARNAME'
   1,   101,-2800.000,   10.000,'CENTRAL     '
   2,   206,-1600.000,   10.000,'EAST        '
   3,   301, 2900.000,   55.000,'CENTRAL_DC  '
   4,   401,  300.000,   15.000,'EAST_COGEN1 '
   5,  3011,  900.000,   10.000,'WEST        '
   6, 80402,  300.000,   20.000,'EAST_COGEN2 '
0 / END OF AREA DATA, BEGIN TWO-TERMINAL DC DATA
@!  'NAME',   MDC,    RDC,     SETVL,    VSCHD,    VCMOD,    RCOMP,   DELTI,METER   DCVMIN,CCCITMX,CCCACC
@! IPR,NBR,  ANMXR,  ANMNR,   RCR,    XCR,   EBASR,  TRR,    TAPR,   TMXR,   TMNR,   STPR,    ICR,NDR,   IFR,   ITR,'IDR', XCAPR
@! IPI,NBI,  ANMXI,  ANMNI,   RCI,    XCI,   EBASI,  TRI,    TAPI,   TMXI,   TMNI,   STPI,    ICI,NDI,   IFI,   ITI,'IDI', XCAPI
"TWO_TERM_DC1",1,   7.8543,  1490.65,   525.00,   400.00,   3.9420,  0.15560,'I',     0.00,  20,  1.00000
 80301,  2, 13.000,  7.500, 0.0111, 3.8800, 500.00,0.44000,1.06275,1.10000,0.90000,0.00525,     0,  0,     0,     0,'1 ', 2.0034
  3021,  2, 21.000, 18.500, 0.0000, 3.0470, 230.00,0.95652,1.07500,1.10000,0.80000,0.00625,     0,  0,   152,  3021,'T4', 2.0000
"TWO_TERM_DC2",1,   8.2000,  1500.00,   525.00,   400.00,   4.1000,  0.15000,'I',     0.00,  20,  1.00000
   301,  2, 12.000,  8.000, 0.0110, 3.8800, 500.00,0.44000,1.05450,1.11200,0.90000,0.00515,     0,  0,     0,     0,'1 ', 0.0098
803022,  2, 20.000, 18.000, 0.0120, 3.0470, 230.00,0.95652,1.06250,1.10000,0.80000,0.00625,     0,  0,   152,  3022,'T5', 0.0074
0 / END OF TWO-TERMINAL DC DATA, BEGIN VSC DC LINE DATA
@!  'NAME',   MDC,  RDC,   O1,  F1,    O2,  F2,    O3,  F3,    O4,  F4
@!IBUS,TYPE,MODE,  DCSET,  ACSET,  ALOSS,  BLOSS,MINLOSS,  SMAX,   IMAX,   PWF,     MAXQ,   MINQ, VSREG,NREG, RMPCT
"VDCLINE1    ",1, 0.7100,   1,0.3204,   2,0.3883,   3,0.1942,   4,0.0971
  3005,   2,   2,-209.00,0.95000,100.000,  0.100, 50.000, 400.00,1200.00,0.10000, 100.00,-110.00,  3005,   0, 100.0
803008,   1,   1, 100.00,0.99000, 90.000,  0.150, 40.000, 350.00,1200.00,0.15000, 150.00,-140.00,  3008,   0, 100.0
"VDCLINE2    ",1, 0.3500,   1,0.3705,   2,0.3597,   3,0.1799,   4,0.0899
 80203,   2,   1,-100.00,1.00000,100.000,  0.150,123.000, 200.00,1200.00,1.00000, 200.00,-150.00,   203,   0, 100.0
   205,   1,   1, 100.00,1.00000, 93.000,  0.120, 98.000, 250.00,1250.00,1.00000, 225.00,-250.00,   205,   0,  99.0
0 / END OF VSC DC LINE DATA, BEGIN IMPEDANCE CORRECTION DATA
@!I,  T1,   Re(F1), Im(F1),   T2,   Re(F2), Im(F2),   T3,   Re(F3), Im(F3),   T4,   Re(F4), Im(F4),   T5,   Re(F5), Im(F5),   T6,   Re(F6), Im(F6)
@!    T7,   Re(F7), Im(F7),   T8,   Re(F8), Im(F8),   T9,   Re(F9), Im(F9),   T10, Re(F10),Im(F10),   T11, Re(F11),Im(F11),   T12, Re(F12),Im(F12)
@!      ...
 1, -30.00,1.10000,0.00000, -24.00,1.09100,0.00000, -18.00,1.08400,0.00000, -12.00,1.06300,0.00000,  -6.00,1.03200,0.00000,   0.00,1.00000,0.00000
      6.00,1.03000,0.00000,  12.00,1.06000,0.00000,  18.00,1.08000,0.00000,  24.00,1.09000,0.00000,  30.00,1.11000,0.00000,   0.00,0.00000,0.00000
 2,0.60000,1.06000,0.00000,0.70000,1.05000,0.00000,0.80000,1.04000,0.00000,0.90000,1.03000,0.00000,0.95000,1.02000,0.00000,1.00000,1.01000,0.00000
   1.05000,0.99000,0.00000,1.10000,0.98000,0.00000,1.20000,0.97000,0.00000,1.30000,0.96000,0.00000,1.40000,0.95000,0.00000,0.00000,0.00000,0.00000
 3,0.95000,1.00620,0.00058,1.00000,1.00000,0.00000,1.05000,0.99006,0.00011,0.00000,0.00000,0.00000
 4,0.95000,0.96964,0.00054,1.00000,1.00000,0.00000,1.05000,1.02486,0.00077,0.00000,0.00000,0.00000
 5,0.94000,1.00620,0.00058,1.00000,1.00000,0.00000,1.06000,0.99006,0.00011,0.00000,0.00000,0.00000
 6,0.94000,0.96964,0.00054,1.00000,1.00000,0.00000,1.06000,1.02486,0.00077,0.00000,0.00000,0.00000
0 / END OF IMPEDANCE CORRECTION DATA, BEGIN MULTI-TERMINAL DC DATA
@!  'NAME',    NCONV,NDCBS,NDCLN,  MDC, VCONV,   VCMOD, VCONVN
@!  IB, N,  ANGMX,  ANGMN,   RC,     XC,     EBAS,   TR,    TAP,    TPMX,   TPMN,   TSTP,   SETVL,   DCPF,  MARG,CNVCOD
@!IDC, IB,AREA,ZONE,   'DCNAME',  IDC2, RGRND,OWNER
@!IDC,JDC,'DCCKT',MET,  RDC,      LDC
"MULTERM_DC_1",    4,    5,    4,    1,   212,  400.00,     0
   402, 4, 10.000,  8.000, 0.0000,19.0000, 500.00,0.22000,1.01000,1.10000,0.97000,0.01000, 321.00, 1.0000,0.15000, 3
   401, 4, 10.000,  8.000, 0.0000,19.0000, 500.00,0.22000,1.01000,1.10000,0.97000,0.01000, 321.00, 1.0000,0.15000, 3
   212, 4, 20.000, 18.000, 0.0000,10.0000, 230.00,0.45200,1.04000,1.10000,0.90000,0.01000, 500.00, 1.0000,0.00000, 1
   213, 4, 20.000, 18.000, 0.0000,10.0000, 230.00,0.45200,1.10000,1.10000,0.90000,0.01000,-303.80, 1.0000,0.00000, 4
 1,   401,   4,   4,'DC1         ', 0, 0.0000,   4
 2,   212,   2,   2,'DC2         ', 0, 0.0000,   2
 3,   402,   4,   4,'DC3         ', 0, 0.0000,   4
 4,   213,   2,   2,'DC4         ', 0, 0.0000,   2
 5,     0,   4,   4,'DC5         ', 0, 0.0000,   4
   1,  5,   '1',    1,29.0000,   0.00
   2,  5,   '1',    1,29.0000,   0.00
   3,  5,   '1',    1,29.0000,   0.00
   4,  5,   '1',    1,29.0000,   0.00
0 / END OF MULTI-TERMINAL DC DATA, BEGIN MULTI-SECTION LINE DATA
@!   I,     J,'ID',MET,DUM1,  DUM2,  DUM3,  DUM4,  DUM5,  DUM6,  DUM7,  DUM8,  DUM9
   201,   204,'&1',2,   207
0 / END OF MULTI-SECTION LINE DATA, BEGIN ZONE DATA
@! I,   'ZONAME'
   1,'NORTH_A1    '
   2,'MID_A1_A2_A5'
   3,'DISCNT_IN_A1'
   4,'SOUTH_A1_A5 '
   5,'ALL_A3      '
   6,'NORTH_A5    '
   7,'NORTH_A2    '
   8,'SOUTH_A2    '
   9,'ALL_A4_A6   '
0 / END OF ZONE DATA, BEGIN INTER-AREA TRANSFER DATA
@!ARFROM,ARTO,'TRID',PTRAN
     1,     2,'A', 1000.00
     1,     5,'B',-3800.00
     2,     4,'C', -300.00
     2,     6,'E', -300.00
     3,     5,'D', 2900.00
0 / END OF INTER-AREA TRANSFER DATA, BEGIN OWNER DATA
@! I,   'OWNAME'
   1,'OWNER 1     '
   2,'OWNER 2     '
   3,'OWNER 3     '
   4,'OWNER 4     '
   5,'OWNER 5     '
0 / END OF OWNER DATA, BEGIN FACTS DEVICE DATA
@!  'NAME',         I,     J,MODE,PDES,   QDES,  VSET,   SHMX,   TRMX,   VTMN,   VTMX,   VSMX,    IMX,   LINX,   RMPCT,OWNER,  SET1,    SET2,VSREF, FCREG,NREG,   'MNAME'
"FACTS_DVCE_1",   153,     0,1,  0.000,  0.000,1.01500, 50.000,100.000,0.92630,1.13400,1.00000,  0.000,0.05652,  100.0,   1, 0.00000, 0.00000,   0,   153,   0,"            "
"FACTS_DVCE_2",   153,   155,1,350.000, 40.000,1.01500, 25.000,9999.00,0.90000,1.10000,1.00000,  0.000,0.05000,  100.0,   1, 0.00000, 0.00000,   0,   153,   0,"            "
0 / END OF FACTS DEVICE DATA, BEGIN SWITCHED SHUNT DATA
@!   I,'ID',MODSW,ADJM,ST, VSWHI,  VSWLO, SWREG,NREG, RMPCT,   'RMIDNT',     BINIT,S1,N1,    B1, S2,N2,    B2, S3,N3,    B3, S4,N4,    B4, S5,N5,    B5, S6,N6,    B6, S7,N7,    B7, S8,N8,    B8
   152,'1 ',   1,  0,  1,1.04500,0.95500,   152,   0, 100.0,'            ',-233.00, 1, 1, -15.00, 1, 2,  -5.00, 1, 3, -10.00, 1, 4,  -8.00, 1, 5,  -7.00, 1, 6,  -5.00, 1, 7,  -7.00, 1, 8,  -4.00
   152,'2 ',   1,  0,  1,1.04500,0.95500,   152,   0, 100.0,'            ',-233.00, 1, 1, -15.00, 1, 2,  -5.00, 1, 3, -10.00, 1, 4,  -8.00, 1, 5,  -7.00, 1, 6,  -5.00, 1, 7,  -7.00, 1, 8,  -4.00
   154,'1 ',   1,  0,  1,1.04480,0.96500,   154,   0, 100.0,'            ', 124.00, 1, 1,  25.00, 1, 2,  10.00, 1, 2,  15.00, 1, 1,  15.00, 1, 2,   5.00, 1, 3,   3.00, 1, 2,   4.00, 1, 1,   7.00
  3005,'1 ',   4,  0,  1,0.98000,0.64000,  3005,   0, 100.0,'VDCLINE1    ',   0.00, 1, 1,  33.35
  3021,'1 ',   2,  0,  1,1.00000,1.00000,  3021,   0, 100.0,'            ', 194.23, 1, 2, 100.00, 1, 1,  50.00, 1, 2,  25.00, 1, 4,  12.50
  3021,'2 ',   2,  0,  1,1.00000,1.00000,  3021,   0, 100.0,'            ', 194.23, 1, 2, 100.00, 1, 1,  50.00, 1, 2,  25.00, 1, 4,  12.50
  3022,'1 ',   2,  0,  1,1.00000,1.00000,  3022,   0, 100.0,'            ', 253.05, 1, 4,  50.00, 1, 2,  25.00, 1, 4,  12.50, 1, 3,  10.00, 1, 2,  10.00
  3022,'2 ',   2,  0,  1,1.00000,1.00000,  3022,   0, 100.0,'            ', 253.05, 1, 4,  50.00, 1, 2,  25.00, 1, 4,  12.50, 1, 3,  10.00, 1, 2,  10.00
 93002,'1 ',   1,  0,  1,0.99628,0.99628, 93002,   0, 100.0,'            ',   1.44, 1, 1,   1.44
0 / END OF SWITCHED SHUNT DATA, BEGIN GNE DATA
@!  'NAME',        'MODEL',     NTERM,BUS1...BUSNTERM,NREAL,NINTG,NCHAR
@!ST,OWNER,NMETR
@! REAL1...REAL(MIN(10,NREAL))
@! INTG1...INTG(MIN(10,NINTG))
@! CHAR1...CHAR(MIN(10,NCHAR))
0 / END OF GNE DATA, BEGIN INDUCTION MACHINE DATA
@!   I,'ID',ST,SC,DC,AREA,ZONE,OWNER,TC,BC, MBASE,RATEKV,PC,  PSET,     H,      A,      B,      D,      E,     RA,        XA,        XM,        R1,        X1,        R2,        X2,        X3,       E1,    SE1,   E2,    SE2,   IA1,   IA2, XAMULT
  3010,"1 ", 1, 1, 2,   5,   4,   5, 1, 1,  1.000, 21.600,1, 1.0000,  1.000,  1.000,  1.000,  1.000,  1.000
  9204,"1 ", 1, 1, 2,   2,   8,   2, 1, 1, 10.000,  0.575,1,10.0000,  1.000,  1.000,  1.000,  1.000,  1.000
 93002,"1 ", 1, 1, 2,   5,   6,   5, 1, 2,  5.620,  0.690,2,-5.0000,  1.000,  1.000,  1.000, -1.000,  1.000
809154,"1 ", 1, 1, 2,   1,   3,   1, 1, 2,  2.270,  4.160,2,-2.0000,  1.000,  1.000,  1.000, -1.000,  1.000
0 / END OF INDUCTION MACHINE DATA, BEGIN SUBSTATION DATA
@! BEGIN SUBSTATION DATA BLOCK
@!  IS,                'N A M E'                 ,    LATITUDE,   LONGITUDE,    SGR
     1,'SS01_NILE_TYP_3_DBDB                    ',  34.6134987, -86.6737137, 0.1100
@! BEGIN SUBSTATION NODE DATA
@!  NI,                'N A M E'                 ,     I,STATUS,   VM  ,   VA
     1,'SS_NILE_NODE_1                          ',   101,     1
     2,'SS_NILE_NODE_2                          ',   101,     1
     3,'SS_NILE_NODE_3                          ',   101,     1
     4,'SS_NILE_NODE_4                          ',   101,     1
     5,'SS_NILE_NODE_5                          ',   102,     1
     6,'SS_NILE_NODE_6                          ',   102,     1
     7,'SS_NILE_NODE_7                          ',   102,     1
     8,'SS_NILE_NODE_8                          ',   102,     1
     9,'SS_NILE_NODE_9                          ',   151,     1
    10,'SS_NILE_NODE_10                         ',   151,     1
    11,'SS_NILE_NODE_11                         ',   151,     1
    12,'SS_NILE_NODE_12                         ',   151,     1
    13,'SS_NILE_NODE_13                         ',   151,     1
    14,'SS_NILE_NODE_14                         ',   151,     1
    15,'SS_NILE_NODE_15                         ',   151,     1
    16,'SS_NILE_NODE_16                         ',   151,     1
    17,'SS_NILE_NODE_17                         ',   151,     1
    18,'SS_NILE_NODE_18                         ',   151,     1
    19,'SS_NILE_NODE_19                         ',   201,     1
    20,'SS_NILE_NODE_20                         ',   201,     1
    21,'SS_NILE_NODE_21                         ',   201,     1
    22,'SS_NILE_NODE_22                         ',   201,     1
    23,'SS_NILE_NODE_23                         ',   201,     1
    24,'SS_NILE_NODE_24                         ',   201,     1
    25,'SS_NILE_NODE_25                         ',   201,     1
    26,'SS_NILE_NODE_26                         ',   201,     1
    27,'SS_NILE_NODE_27                         ',   211,     1
    28,'SS_NILE_NODE_28                         ',   211,     1
    29,'SS_NILE_NODE_29                         ',   211,     1
    30,'SS_NILE_NODE_30                         ',   211,     1
    31,'SS_NILE_NODE_31                         ', 80102,     1
    32,'SS_NILE_NODE_32                         ', 80102,     1
    33,'SS_NILE_NODE_33                         ', 80102,     1
    34,'SS_NILE_NODE_34                         ', 80102,     1
    35,'SS_NILE_NODE_35                         ', 80151,     1
    36,'SS_NILE_NODE_36                         ', 80151,     1
    37,'SS_NILE_NODE_37                         ', 80151,     1
    38,'SS_NILE_NODE_38                         ', 80151,     1
     0 / END OF SUBSTATION NODE DATA, BEGIN SUBSTATION SWITCHING DEVICE DATA
@!  NI, NJ,CKTID,                'N A M E'                 ,  TYPE,STATUS, NSTAT,     X  ,  RATE1,  RATE2,  RATE3
     1,  3, '1 ','SS_NILE_SWD_1_3_1                       ',     2,     1,     1, 0.00010,   0.00,   0.00,   0.00
     1,  4, '1 ','SS_NILE_SWD_1_4_1                       ',     2,     1,     1, 0.00010,   0.00,   0.00,   0.00
     2,  3, '1 ','SS_NILE_SWD_2_3_1                       ',     2,     1,     1, 0.00010,   0.00,   0.00,   0.00
     2,  4, '1 ','SS_NILE_SWD_2_4_1                       ',     2,     1,     1, 0.00010,   0.00,   0.00,   0.00
     5,  7, '1 ','SS_NILE_SWD_5_7_1                       ',     2,     1,     1, 0.00010,   0.00,   0.00,   0.00
     5,  8, '1 ','SS_NILE_SWD_5_8_1                       ',     2,     1,     1, 0.00010,   0.00,   0.00,   0.00
     6,  7, '1 ','SS_NILE_SWD_6_7_1                       ',     2,     1,     1, 0.00010,   0.00,   0.00,   0.00
     6,  8, '1 ','SS_NILE_SWD_6_8_1                       ',     2,     1,     1, 0.00010,   0.00,   0.00,   0.00
     9, 11, '1 ','SS_NILE_SWD_9_11_1                      ',     2,     1,     1, 0.00010,   0.00,   0.00,   0.00
     9, 12, '1 ','SS_NILE_SWD_9_12_1                      ',     2,     1,     1, 0.00010,   0.00,   0.00,   0.00
     9, 13, '1 ','SS_NILE_SWD_9_13_1                      ',     2,     1,     1, 0.00010,   0.00,   0.00,   0.00
     9, 14, '1 ','SS_NILE_SWD_9_14_1                      ',     2,     1,     1, 0.00010,   0.00,   0.00,   0.00
     9, 15, '1 ','SS_NILE_SWD_9_15_1                      ',     2,     1,     1, 0.00010,   0.00,   0.00,   0.00
     9, 16, '1 ','SS_NILE_SWD_9_16_1                      ',     2,     1,     1, 0.00010,   0.00,   0.00,   0.00
     9, 17, '1 ','SS_NILE_SWD_9_17_1                      ',     2,     1,     1, 0.00010,   0.00,   0.00,   0.00
     9, 18, '1 ','SS_NILE_SWD_9_18_1                      ',     2,     1,     1, 0.00010,   0.00,   0.00,   0.00
    10, 11, '1 ','SS_NILE_SWD_10_11_1                     ',     2,     1,     1, 0.00010,   0.00,   0.00,   0.00
    10, 12, '1 ','SS_NILE_SWD_10_12_1                     ',     2,     1,     1, 0.00010,   0.00,   0.00,   0.00
    10, 13, '1 ','SS_NILE_SWD_10_13_1                     ',     2,     1,     1, 0.00010,   0.00,   0.00,   0.00
    10, 14, '1 ','SS_NILE_SWD_10_14_1                     ',     2,     1,     1, 0.00010,   0.00,   0.00,   0.00
    10, 15, '1 ','SS_NILE_SWD_10_15_1                     ',     2,     1,     1, 0.00010,   0.00,   0.00,   0.00
    10, 16, '1 ','SS_NILE_SWD_10_16_1                     ',     2,     1,     1, 0.00010,   0.00,   0.00,   0.00
    10, 17, '1 ','SS_NILE_SWD_10_17_1                     ',     2,     1,     1, 0.00010,   0.00,   0.00,   0.00
    10, 18, '1 ','SS_NILE_SWD_10_18_1                     ',     2,     1,     1, 0.00010,   0.00,   0.00,   0.00
    19, 21, '1 ','SS_NILE_SWD_19_21_1                     ',     2,     1,     1, 0.00010,   0.00,   0.00,   0.00
    19, 22, '1 ','SS_NILE_SWD_19_22_1                     ',     2,     1,     1, 0.00010,   0.00,   0.00,   0.00
    19, 23, '1 ','SS_NILE_SWD_19_23_1                     ',     2,     1,     1, 0.00010,   0.00,   0.00,   0.00
    19, 24, '1 ','SS_NILE_SWD_19_24_1                     ',     2,     1,     1, 0.00010,   0.00,   0.00,   0.00
    19, 25, '1 ','SS_NILE_SWD_19_25_1                     ',     2,     1,     1, 0.00010,   0.00,   0.00,   0.00
    19, 26, '1 ','SS_NILE_SWD_19_26_1                     ',     2,     1,     1, 0.00010,   0.00,   0.00,   0.00
    20, 21, '1 ','SS_NILE_SWD_20_21_1                     ',     2,     1,     1, 0.00010,   0.00,   0.00,   0.00
    20, 22, '1 ','SS_NILE_SWD_20_22_1                     ',     2,     1,     1, 0.00010,   0.00,   0.00,   0.00
    20, 23, '1 ','SS_NILE_SWD_20_23_1                     ',     2,     1,     1, 0.00010,   0.00,   0.00,   0.00
    20, 24, '1 ','SS_NILE_SWD_20_24_1                     ',     2,     1,     1, 0.00010,   0.00,   0.00,   0.00
    20, 25, '1 ','SS_NILE_SWD_20_25_1                     ',     2,     1,     1, 0.00010,   0.00,   0.00,   0.00
    20, 26, '1 ','SS_NILE_SWD_20_26_1                     ',     2,     1,     1, 0.00010,   0.00,   0.00,   0.00
    27, 29, '1 ','SS_NILE_SWD_27_29_1                     ',     2,     1,     1, 0.00010,   0.00,   0.00,   0.00
    27, 30, '1 ','SS_NILE_SWD_27_30_1                     ',     2,     1,     1, 0.00010,   0.00,   0.00,   0.00
    28, 29, '1 ','SS_NILE_SWD_28_29_1                     ',     2,     1,     1, 0.00010,   0.00,   0.00,   0.00
    28, 30, '1 ','SS_NILE_SWD_28_30_1                     ',     2,     1,     1, 0.00010,   0.00,   0.00,   0.00
    31, 33, '1 ','SS_NILE_SWD_31_33_1                     ',     2,     1,     1, 0.00010,   0.00,   0.00,   0.00
    31, 34, '1 ','SS_NILE_SWD_31_34_1                     ',     2,     1,     1, 0.00010,   0.00,   0.00,   0.00
    32, 33, '1 ','SS_NILE_SWD_32_33_1                     ',     2,     1,     1, 0.00010,   0.00,   0.00,   0.00
    32, 34, '1 ','SS_NILE_SWD_32_34_1                     ',     2,     1,     1, 0.00010,   0.00,   0.00,   0.00
    35, 37, '1 ','SS_NILE_SWD_35_37_1                     ',     2,     1,     1, 0.00010,   0.00,   0.00,   0.00
    35, 38, '1 ','SS_NILE_SWD_35_38_1                     ',     2,     1,     1, 0.00010,   0.00,   0.00,   0.00
    36, 37, '1 ','SS_NILE_SWD_36_37_1                     ',     2,     1,     1, 0.00010,   0.00,   0.00,   0.00
    36, 38, '1 ','SS_NILE_SWD_36_38_1                     ',     2,     1,     1, 0.00010,   0.00,   0.00,   0.00
     0 / END OF SUBSTATION SWITCHING DEVICE DATA, BEGIN SUBSTATION TERMINAL DATA
@!   I, NI, TYP,     J,     K, ID
   101,  4, 'M',              '1 '
   101,  3, '2', 80151,       'T1'
   102,  8, 'M',              '1 '
   102,  7, 'B', 80102,       'Z5'
   151, 16, 'F',              'F1'
   151, 17, 'F',              'F2'
   151, 18, 'F',              'F3'
   151, 11, 'B',   152,       '1 '
   151, 12, 'B',   152,       '2 '
   151, 14, 'B',   201,       '*1'
   151, 15, '2', 80102,       'T2'
   151, 13, 'B', 80151,       'Z3'
   201, 25, 'L',              'SC'
   201, 26, 'F',              '1 '
   201, 24, 'B',   151,       '*1'
   201, 21, 'B',   202,       '1 '
   201, 22, 'B',   207,       'C1'
   201, 23, '2',   211,       'T6'
   211, 30, 'M',              '1 '
   211, 29, '2',   201,       'T6'
 80102, 33, 'B',   102,       'Z5'
 80102, 34, '2',   151,       'T2'
 80151, 37, '2',   101,       'T1'
 80151, 38, 'B',   151,       'Z3'
     0 / END OF SUBSTATION TERMINAL DATA
@! BEGIN SUBSTATION DATA BLOCK
@!  IS,                'N A M E'                 ,    LATITUDE,   LONGITUDE,    SGR
     2,'SS02_YANGTZE_TYP_6_MBTB                 ',  32.5103989, -86.3657990, 0.1200
@! BEGIN SUBSTATION NODE DATA
@!  NI,                'N A M E'                 ,     I,STATUS,   VM  ,   VA
     1,'SS_YANGTZE_NODE_1                       ',   152,     1
     2,'SS_YANGTZE_NODE_2                       ',   152,     0
     3,'SS_YANGTZE_NODE_3                       ',   152,     1
     4,'SS_YANGTZE_NODE_4                       ',   152,     1
     5,'SS_YANGTZE_NODE_5                       ',   152,     1
     6,'SS_YANGTZE_NODE_6                       ',   152,     1
     7,'SS_YANGTZE_NODE_7                       ',   152,     1
     8,'SS_YANGTZE_NODE_8                       ',   152,     1
     9,'SS_YANGTZE_NODE_9                       ',   152,     1
    10,'SS_YANGTZE_NODE_10                      ',   152,     1
    11,'SS_YANGTZE_NODE_11                      ',   152,     1
    12,'SS_YANGTZE_NODE_12                      ',   152,     1
    13,'SS_YANGTZE_NODE_13                      ',   152,     1
    14,'SS_YANGTZE_NODE_14                      ',   153,     1
    15,'SS_YANGTZE_NODE_15                      ',   153,     0
    16,'SS_YANGTZE_NODE_16                      ',   153,     1
    17,'SS_YANGTZE_NODE_17                      ',   153,     1
    18,'SS_YANGTZE_NODE_18                      ',   153,     1
    19,'SS_YANGTZE_NODE_19                      ',   153,     1
    20,'SS_YANGTZE_NODE_20                      ',   153,     1
    21,'SS_YANGTZE_NODE_21                      ',   153,     1
    22,'SS_YANGTZE_NODE_22                      ',  3006,     1
    23,'SS_YANGTZE_NODE_23                      ',  3006,     0
    24,'SS_YANGTZE_NODE_24                      ',  3006,     1
    25,'SS_YANGTZE_NODE_25                      ',  3006,     1
    26,'SS_YANGTZE_NODE_26                      ',  3021,     1
    27,'SS_YANGTZE_NODE_27                      ',  3021,     0
    28,'SS_YANGTZE_NODE_28                      ',  3021,     1
    29,'SS_YANGTZE_NODE_29                      ',  3021,     1
    30,'SS_YANGTZE_NODE_30                      ',  3021,     1
    31,'SS_YANGTZE_NODE_31                      ',  3021,     1
    32,'SS_YANGTZE_NODE_32                      ',  3021,     1
    33,'SS_YANGTZE_NODE_33                      ',  3022,     1
    34,'SS_YANGTZE_NODE_34                      ',  3022,     0
    35,'SS_YANGTZE_NODE_35                      ',  3022,     1
    36,'SS_YANGTZE_NODE_36                      ',  3022,     1
    37,'SS_YANGTZE_NODE_37                      ',  3022,     1
    38,'SS_YANGTZE_NODE_38                      ',  3022,     1
    39,'SS_YANGTZE_NODE_39                      ',  3022,     1
    40,'SS_YANGTZE_NODE_40                      ',803022,     1
    41,'SS_YANGTZE_NODE_41                      ',803022,     0
    42,'SS_YANGTZE_NODE_42                      ',803022,     1
    43,'SS_YANGTZE_NODE_43                      ',803022,     1
     0 / END OF SUBSTATION NODE DATA, BEGIN SUBSTATION SWITCHING DEVICE DATA
@!  NI, NJ,CKTID,                'N A M E'                 ,  TYPE,STATUS, NSTAT,     X  ,  RATE1,  RATE2,  RATE3
     1,  2, '1 ','SS_YANGTZE_SWD_1_2_1                    ',     2,     0,     0, 0.00010,   0.00,   0.00,   0.00
     1,  3, '1 ','SS_YANGTZE_SWD_1_3_1                    ',     2,     1,     1, 0.00010,   0.00,   0.00,   0.00
     1,  4, '1 ','SS_YANGTZE_SWD_1_4_1                    ',     2,     1,     1, 0.00010,   0.00,   0.00,   0.00
...